*NODE
1, 0.0, 0.0, 0.0
2, 1.0, 0.0, 0.0
3, 0.0, 1.0, 0.0
*NSET, NSET=ALL, GENERATE
1, 3, 1
*ELEMENT, TYPE=S3, ELSET=EALL
1, 1, 2, 3
*MATERIAL, NAME=STEEL
*ELASTIC
210000, 0.3
*SHELL SECTION, ELSET=EALL, MATERIAL=STEEL
1.0
*STEP
*STATIC
*BOUNDARY
1, 1, 3
3, 1, 3
*CLOAD
2, 1, 50.0
*NODE PRINT, NSET=ALL
U
*END STEP
