*NODE
1, -0.00675419, -10.9668, 0
2, 18.8916, -20, 19.3053
3, 4.57611, -20, 23.5428
4, -7.8353, 8.47445, 28
5, -0.616563, -20, 12.8281
6, -15.2592, 20, 28.2145
7, -1.2863, 20, 10.665
8, 2.63561, -15.5096, 30
9, -50, -10.5138, 7.5515
10, 30.3528, 7.63404, 0
11, 21.0949, 6.91046, 30
12, 50, -7.99643, 22.1232
13, 44.8168, 20, 21.199
14, 38.059, -18.4993, 0
15, -32.6885, 16.92, 0
16, -49.151, 15.348, 30
17, -31.7425, -7.91119, 30
18, 50, -0.775256, 1.91776
19, 47.3288, 20, 0.344443
20, 25.5003, 20, 15.238
** ... 3692 like lines cut
*NSET, NSET=ALL, GENERATE
1, 3712, 1
*ELEMENT, TYPE=C3D10, ELSET=TRENCH_ELEMS
1, 129, 135, 25, 130, 625, 626, 627, 628, 629, 630
2, 43, 41, 12, 35, 631, 632, 633, 634, 635, 636
3, 524, 549, 52, 596, 637, 638, 639, 640, 641, 642
4, 17, 604, 248, 541, 643, 644, 645, 646, 647, 648
5, 526, 581, 22, 564, 649, 650, 651, 652, 653, 654
6, 280, 271, 279, 565, 655, 656, 657, 658, 659, 660
7, 174, 172, 169, 340, 661, 662, 663, 664, 665, 666
8, 59, 30, 60, 58, 667, 668, 669, 670, 671, 672
9, 177, 178, 105, 179, 673, 674, 675, 676, 677, 678
10, 445, 413, 386, 98, 679, 680, 681, 682, 683, 684
11, 597, 598, 550, 393, 685, 686, 687, 688, 689, 690
12, 584, 548, 598, 348, 691, 692, 693, 694, 695, 696
13, 90, 287, 286, 94, 697, 698, 699, 700, 701, 702
14, 194, 195, 193, 196, 703, 704, 705, 706, 707, 708
15, 549, 586, 568, 48, 709, 710, 711, 712, 713, 714
16, 264, 88, 71, 157, 715, 716, 717, 718, 719, 720
17, 209, 550, 563, 47, 721, 722, 723, 724, 725, 726
18, 61, 30, 60, 59, 727, 668, 728, 729, 667, 669
19, 509, 499, 498, 154, 730, 731, 732, 733, 734, 735
20, 598, 597, 558, 393, 685, 736, 737, 689, 688, 738
** ... 1650 like lines cut
*SURFACE, TYPE=ELEMENT, NAME=TRENCH_FACES
186, S4
307, S3
340, S2
526, S3
569, S4
629, S3
637, S1
650, S4
705, S2
978, S2
1421, S1
1694, S2
1789, S2
1828, S2
1873, S1
1969, S4
2007, S1
2169, S3
2180, S1
2252, S1
2336, S4
*ELSET, ELSET=LAYER1
186, 307, 340, 526, 569, 629, 637, 650, 705, 978, 1421, 1694, 1789, 1828, 1873, 1969
2007, 2169, 2180, 2252, 2336
*MATERIAL, NAME=ALUMINUM
*ELASTIC
69000, 0.33
*SOLID SECTION, ELSET=TRENCH_ELEMS, MATERIAL=ALUMINUM
*STEP
*STATIC
*BOUNDARY
24, 1, 3, 0.0
163, 1, 3, 0.0
165, 1, 3, 0.0
166, 1, 3, 0.0
171, 1, 3, 0.0
222, 1, 3, 0.0
223, 1, 3, 0.0
285, 1, 3, 0.0
294, 1, 3, 0.0
313, 1, 3, 0.0
320, 1, 3, 0.0
327, 1, 3, 0.0
330, 1, 3, 0.0
331, 1, 3, 0.0
349, 1, 3, 0.0
398, 1, 3, 0.0
424, 1, 3, 0.0
429, 1, 3, 0.0
430, 1, 3, 0.0
431, 1, 3, 0.0
** ... 18 like lines cut
*DLOAD
TRENCH_FACES, P, 13.0527
*NODE PRINT, NSET=ALL
U
*EL PRINT, ELSET=LAYER1, FREQUENCY=0
  S
*END STEP
